/*--------------------------------*- C++ -*----------------------------------*\
  =========                 |
  \\      /  F ield         | OpenFOAM: The Open Source CFD Toolbox
   \\    /   O peration     | Website:  https://openfoam.org
    \\  /    A nd           | Version:  dev
     \\/     M anipulation  |
\*---------------------------------------------------------------------------*/
FoamFile
{
    version     2.0;
    format      ascii;
    class       dictionary;
    location    "system/fluid";
    object      fvSolution;
}
// * * * * * * * * * * * * * * * * * * * * * * * * * * * * * * * * * * * * * //

solvers
{
    "alpha.*"
    {
        nAlphaCorr      1;
        nAlphaSubCycles 3;
    }
    bubbles
    {   
        nCorr                   1;
        tolerance               1e-4;
        renormalizeOnRestart    true;
        renormalize             false;
        solveOnFinalIterOnly    true;
    }   
    
    rho
    {
        solver          PCG;
        preconditioner  DIC;
        tolerance       1e-7;
        relTol          0.1;
    }
    rhoFinal
    {
        $rho;
        tolerance       1e-7;
        relTol          0;
    }

    p_rgh
    {
        solver          GAMG;
        smoother        GaussSeidel;
        tolerance       1e-7;
        relTol          0.01;
    }

    p_rghFinal
    {
        $p_rgh;
        tolerance       1e-7;
        relTol          0;
    }

    "(U)"
    {
        solver          PBiCGStab;
        preconditioner  DILU;
        tolerance       1e-7;
        relTol          0.1;
    }

    "(e|h).*"
    {
        solver          PBiCGStab;
        preconditioner  DILU;
        tolerance       1e-8;
        relTol          0.001;
        minIter         1;
        maxIter         20;
    }

    "(k|epsilon).*"
    {
        solver          PBiCGStab;
        preconditioner  DILU;
        tolerance       1e-8;
        relTol          0.001;
        minIter         1;
        maxIter         20;
    }

    "f.*"
    {   
        solver          PBiCGStab;
        preconditioner  DILU;
        tolerance       1e-6;
        relTol          0;
    }   
}

PIMPLE
{
    nOuterCorrectors    2;
    nCorrectors         2;
    nNonOrthogonalCorrectors 0;
    nEnergyCorrectors   2;
    faceMomentum        yes;
    turbOnFinalIterOnly false;
    nFluidLoop          2;
}

relaxationFactors
{
    fields
    {
        iDmdt           1;
    }

    equations
    {
        ".*"            1;
        "h.*"           1;
        "U.*"           1;
    }
}


// ************************************************************************* //
