/*--------------------------------*- C++ -*----------------------------------*\
| =========                 |                                                 |
| \\      /  F ield         | OpenFOAM: The Open Source CFD Toolbox           |
|  \\    /   O peration     | Version:  v1906                                 |
|   \\  /    A nd           | Web:      www.OpenFOAM.com                      |
|    \\/     M anipulation  |                                                 |
\*---------------------------------------------------------------------------*/
FoamFile
{
    version     2.0;
    format      ascii;
    class       volScalarField;
    location    "0/fluid";
    object      p_rgh;
}
// * * * * * * * * * * * * * * * * * * * * * * * * * * * * * * * * * * * * * //

dimensions      [1 -1 -2 0 0 0 0];


internalField   uniform 101325;

boundaryField
{
    bottom
    {
        type            fixedFluxPressure;
        gradient        uniform 0;
        value           uniform 101325;
    }
    outlet
    {
        type            prghTotalPressure;
        U               U.gas;
        p0              uniform 101325;
        value           uniform 101325;
    }
    symmetry1
    {
        type            symmetry;
    }
    symmetry2
    {
        type            symmetry;
    }
    wall
    {
        type            fixedFluxPressure;
        gradient        uniform 0;
        value           uniform 101325;
    }
    fluid_to_solid
    {
        type            fixedFluxPressure;
        gradient        uniform 0;
        value           uniform 101325;
    }
}


// ************************************************************************* //
