/*--------------------------------*- C++ -*----------------------------------*\
  =========                 |
  \\      /  F ield         | OpenFOAM: The Open Source CFD Toolbox
   \\    /   O peration     | Website:  https://openfoam.org
    \\  /    A nd           | Version:  dev
     \\/     M anipulation  |
\*---------------------------------------------------------------------------*/
FoamFile
{
    version     2.0;
    format      ascii;
    class       volScalarField;
    location    "0/solid";
    object      p;
}
// * * * * * * * * * * * * * * * * * * * * * * * * * * * * * * * * * * * * * //

dimensions      [ 1 -1 -2 0 0 0 0 ];

internalField   uniform 100000;

boundaryField
{
    frontAndBack
    {
        type            empty;
    }
    heater
    {
        type            calculated;
        value           $internalField;
    }
    solid_to_fluid
    {
        type            calculated;
        value           $internalField;
    }
    walls
    {
        type            calculated;
        value           $internalField;
    }
}


// ************************************************************************* //
