/*--------------------------------*- C++ -*----------------------------------*\
  =========                 |
  \\      /  F ield         | OpenFOAM: The Open Source CFD Toolbox
   \\    /   O peration     | Website:  https://openfoam.org
    \\  /    A nd           | Version:  dev
     \\/     M anipulation  |
\*---------------------------------------------------------------------------*/
FoamFile
{
    version     2.0;
    format      ascii;
    class       volScalarField;
    location    "0/fluid";
    object      p;
}
// * * * * * * * * * * * * * * * * * * * * * * * * * * * * * * * * * * * * * //

dimensions      [ 1 -1 -2 0 0 0 0 ];

internalField   uniform 100000;

boundaryField
{
    frontAndBack
    {
        type            empty;
    }
    walls
    {
        type            calculated;
        value           $internalField;
    }
    inlet
    {
        type            calculated;
        value           $internalField;
    }
    outlet
    {
        type            fixedValue;
        value           $internalField;
    }
    fluid_to_solid
    {
        type            calculated;
        value           $internalField;
    }
}


// ************************************************************************* //
