/*--------------------------------*- C++ -*----------------------------------*\
| =========                 |                                                 |
| \\      /  F ield         | OpenFOAM: The Open Source CFD Toolbox           |
|  \\    /   O peration     | Version:  v1906                                 |
|   \\  /    A nd           | Web:      www.OpenFOAM.com                      |
|    \\/     M anipulation  |                                                 |
\*---------------------------------------------------------------------------*/
FoamFile
{
    version     2.0;
    format      ascii;
    class       polyBoundaryMesh;
    location    "constant/polyMesh";
    object      boundary;
}
// * * * * * * * * * * * * * * * * * * * * * * * * * * * * * * * * * * * * * //

3
(
    walls
    {
        type            wall;
        physicalType    wall;
        nFaces          4445;
        startFace       80760;
    }
    maxY
    {
        type            patch;
        physicalType    patch;
        nFaces          1225;
        startFace       85205;
    }
    fluid_to_solid
    {
        type            mappedWall;
        inGroups        1(wall);
        nFaces          510;
        startFace       86430;
        sampleMode      nearestPatchFaceAMI;
        sampleRegion    solid;
        samplePatch     solid_to_fluid;
    }
)

// ************************************************************************* //
